trunk/Version8/Distrib/Examples/ADiakoptics/EPRI_Ckt5-G/Torn_Circuit/zone_2/Branches.dss
New "Line.mdv201_hn_2_094_abc51012" bus1=14857 bus2=51012 length=0.0515112 geometry=3ph_horiz_lg_1c-al_4/0_7stral_4/0_7stral_4/0_7stracsr_1/0_6/1 Seasons=1 Ratings=[0,] normamps=338 emergamps=406 units=km enabled=true phases=3
New "Line.s_mdv201_hn_2_094_abc51012-1b0" bus1=x_51012.2 bus2=x_51012_1.2 linecode=defaultsecondary Seasons=1 Ratings=[400,] normamps=400 emergamps=600 phases=1 length=100 units=ft
New "Line.mdv201_hn_2_093_abc63714" bus1=51012 bus2=63714 length=0.079248 geometry=3ph_horiz_lg_1c-al_4/0_7stral_4/0_7stral_4/0_7stracsr_1/0_6/1 Seasons=1 Ratings=[0,] normamps=338 emergamps=406 units=km enabled=true phases=3
New "Line.s_mdv201_hn_2_093_abc63714-1b1" bus1=x_63714.2 bus2=x_63714_2.2 linecode=defaultsecondary Seasons=1 Ratings=[400,] normamps=400 emergamps=600 phases=1 length=100 units=ft
New "Line.s_mdv201_hn_2_093_abc63714-1b0" bus1=x_63714.2 bus2=x_63714_1.2 linecode=defaultsecondary Seasons=1 Ratings=[400,] normamps=400 emergamps=600 phases=1 length=100 units=ft
New "Line.mdv201_hn_2_092_abc63711" bus1=63714 bus2=63711 length=0.105156 geometry=3ph_horiz_lg_1c-al_4/0_7stral_4/0_7stral_4/0_7stracsr_1/0_6/1 Seasons=1 Ratings=[0,] normamps=338 emergamps=406 units=km enabled=true phases=3
New "Line.s_mdv201_hn_2_092_abc63711-1b1" bus1=x_63711.2 bus2=x_63711_2.2 linecode=defaultsecondary Seasons=1 Ratings=[400,] normamps=400 emergamps=600 phases=1 length=100 units=ft
New "Line.s_mdv201_hn_2_092_abc63711-1b0" bus1=x_63711.2 bus2=x_63711_1.2 linecode=defaultsecondary Seasons=1 Ratings=[400,] normamps=400 emergamps=600 phases=1 length=100 units=ft
New "Line.mdv201_hn_2_247_abc44582" bus1=63711 bus2=44582 length=0.0432816 geometry=3ph_horiz_lg_1c-al_4/0_7stral_4/0_7stral_4/0_7stracsr_1/0_6/1 Seasons=1 Ratings=[0,] normamps=338 emergamps=406 units=km enabled=true phases=3
New "Line.s_mdv201_hn_2_247_abc44582-1b1" bus1=x_44582.2 bus2=x_44582_2.2 linecode=defaultsecondary Seasons=1 Ratings=[400,] normamps=400 emergamps=600 phases=1 length=100 units=ft
New "Line.s_mdv201_hn_2_247_abc44582-1b0" bus1=x_44582.2 bus2=x_44582_1.2 linecode=defaultsecondary Seasons=1 Ratings=[400,] normamps=400 emergamps=600 phases=1 length=100 units=ft
New "Line.mdv201_hn_2_217_abc8160" bus1=44582 bus2=8160 length=0.025908 geometry=3ph_horiz_lg_1c-al_4/0_7stral_4/0_7stral_4/0_7stracsr_1/0_6/1 Seasons=1 Ratings=[0,] normamps=338 emergamps=406 units=km enabled=true phases=3
New "Line.mdv201_104356fuse" bus1=8160.3 bus2=104356.3 length=0.001524 geometry=1ph-nonenonebusbarbusbar Seasons=1 Ratings=[0,] normamps=2000 emergamps=2400 units=km enabled=true phases=1
New "Line.mdv201_hn_2_216_c44581" bus1=104356.3 bus2=44581.3 length=0.0969264 geometry=1ph-nonenoneal_#2_7stracsr_1/0_6/1 Seasons=1 Ratings=[0,] normamps=163 emergamps=196 units=km enabled=true phases=1
New "Line.s_mdv201_hn_2_216_c44581-1c2" bus1=x_44581.3 bus2=x_44581_3.3 linecode=defaultsecondary Seasons=1 Ratings=[400,] normamps=400 emergamps=600 phases=1 length=100 units=ft
New "Line.s_mdv201_hn_2_216_c44581-1c1" bus1=x_44581.3 bus2=x_44581_2.3 linecode=defaultsecondary Seasons=1 Ratings=[400,] normamps=400 emergamps=600 phases=1 length=100 units=ft
New "Line.s_mdv201_hn_2_216_c44581-1c0" bus1=x_44581.3 bus2=x_44581_1.3 linecode=defaultsecondary Seasons=1 Ratings=[400,] normamps=400 emergamps=600 phases=1 length=100 units=ft
New "Line.mdv201_hn_2_287_c63712" bus1=44581.3 bus2=63712.3 length=0.0972312 geometry=1ph-nonenoneal_#2_7stracsr_1/0_6/1 Seasons=1 Ratings=[0,] normamps=163 emergamps=196 units=km enabled=true phases=1
New "Line.mdv201_hn_21015_c63716" bus1=63712.3 bus2=63716.3 length=0.0414528 geometry=1ph-nonenoneal_#2_7stracsr_1/0_6/1 Seasons=1 Ratings=[0,] normamps=163 emergamps=196 units=km enabled=true phases=1
New "Line.mdv201_hn_21093_c1012641" bus1=63716.3 bus2=1012641.3 length=0.0146304 geometry=1ph-nonenoneacsr_1/0_6/1acsr_1/0_6/1 Seasons=1 Ratings=[0,] normamps=271 emergamps=325 units=km enabled=true phases=1
New "Line.mdv201_1012643fuse" bus1=1012641.3 bus2=1012643.3 length=0.001524 geometry=1ph-nonenonebusbarbusbar Seasons=1 Ratings=[0,] normamps=2000 emergamps=2400 units=km enabled=true phases=1
New "Line.mdv201_hn_2p027_c1160453" bus1=1012643.3 bus2=1160453.3 length=0.0993648 linecode=ug_1/0al Seasons=1 Ratings=[400,] normamps=150 emergamps=150 units=km enabled=true phases=1
New "Line.hn_2p027_sw" bus1=1160453.3 bus2=mdv201_1012644elb_int.3 length=0.001 Switch=True units=km enabled=true phases=1
New "Line.mdv201_1012644elb" bus1=mdv201_1012644elb_int.3 bus2=1012644.3 length=0.001524 linecode=busbar Seasons=1 Ratings=[400,] normamps=2000 emergamps=2000 units=km enabled=true phases=1
New "Line.s_mdv201_1012644elb-1c0" bus1=x_1012644.3 bus2=x_1012644_1.3 linecode=defaultsecondary Seasons=1 Ratings=[400,] normamps=400 emergamps=600 phases=1 length=100 units=ft
New "Line.mdv201_hn_21016_c63717" bus1=63716.3 bus2=63717.3 length=0.0527304 geometry=1ph-nonenoneal_#2_7stracsr_1/0_6/1 Seasons=1 Ratings=[0,] normamps=163 emergamps=196 units=km enabled=true phases=1
New "Line.s_mdv201_hn_21016_c63717-1c0" bus1=x_63717.3 bus2=x_63717_1.3 linecode=defaultsecondary Seasons=1 Ratings=[400,] normamps=400 emergamps=600 phases=1 length=100 units=ft
New "Line.mdv201_hn_2_288_c63719" bus1=63716.3 bus2=63719.3 length=0.0496824 geometry=1ph-nonenoneal_#2_7stracsr_1/0_6/1 Seasons=1 Ratings=[0,] normamps=163 emergamps=196 units=km enabled=true phases=1
New "Line.s_mdv201_hn_2_288_c63719-1c4" bus1=x_63719.3 bus2=x_63719_5.3 linecode=defaultsecondary Seasons=1 Ratings=[400,] normamps=400 emergamps=600 phases=1 length=100 units=ft
New "Line.s_mdv201_hn_2_288_c63719-1c3" bus1=x_63719.3 bus2=x_63719_4.3 linecode=defaultsecondary Seasons=1 Ratings=[400,] normamps=400 emergamps=600 phases=1 length=100 units=ft
New "Line.s_mdv201_hn_2_288_c63719-1c2" bus1=x_63719.3 bus2=x_63719_3.3 linecode=defaultsecondary Seasons=1 Ratings=[400,] normamps=400 emergamps=600 phases=1 length=100 units=ft
New "Line.s_mdv201_hn_2_288_c63719-1c1" bus1=x_63719.3 bus2=x_63719_2.3 linecode=defaultsecondary Seasons=1 Ratings=[400,] normamps=400 emergamps=600 phases=1 length=100 units=ft
New "Line.s_mdv201_hn_2_288_c63719-1c0" bus1=x_63719.3 bus2=x_63719_1.3 linecode=defaultsecondary Seasons=1 Ratings=[400,] normamps=400 emergamps=600 phases=1 length=100 units=ft
New "Line.mdv201_hn_2_091_abc44583" bus1=8160 bus2=44583 length=0.0332232 geometry=3ph_horiz_lg_1c-al_4/0_7stral_4/0_7stral_4/0_7stracsr_1/0_6/1 Seasons=1 Ratings=[0,] normamps=338 emergamps=406 units=km enabled=true phases=3
New "Line.s_mdv201_hn_2_091_abc44583-1c1" bus1=x_44583.3 bus2=x_44583_2.3 linecode=defaultsecondary Seasons=1 Ratings=[400,] normamps=400 emergamps=600 phases=1 length=100 units=ft
New "Line.s_mdv201_hn_2_091_abc44583-1c0" bus1=x_44583.3 bus2=x_44583_1.3 linecode=defaultsecondary Seasons=1 Ratings=[400,] normamps=400 emergamps=600 phases=1 length=100 units=ft
New "Line.mdv201_hn_2_248_abc44584" bus1=44583 bus2=44584 length=0.0301752 geometry=3ph_horiz_lg_1c-al_4/0_7stral_4/0_7stral_4/0_7stracsr_1/0_6/1 Seasons=1 Ratings=[0,] normamps=338 emergamps=406 units=km enabled=true phases=3
New "Line.s_mdv201_hn_2_248_abc44584-1c2" bus1=x_44584.3 bus2=x_44584_3.3 linecode=defaultsecondary Seasons=1 Ratings=[400,] normamps=400 emergamps=600 phases=1 length=100 units=ft
New "Line.s_mdv201_hn_2_248_abc44584-1c1" bus1=x_44584.3 bus2=x_44584_2.3 linecode=defaultsecondary Seasons=1 Ratings=[400,] normamps=400 emergamps=600 phases=1 length=100 units=ft
New "Line.s_mdv201_hn_2_248_abc44584-1c0" bus1=x_44584.3 bus2=x_44584_1.3 linecode=defaultsecondary Seasons=1 Ratings=[400,] normamps=400 emergamps=600 phases=1 length=100 units=ft
New "Line.mdv201_hn_2_089_abc8163" bus1=44584 bus2=8163 length=0.0600456 geometry=3ph_vert_1c-al_4/0_7stral_4/0_7stral_4/0_7stracsr_1/0_6/1 Seasons=1 Ratings=[0,] normamps=338 emergamps=406 units=km enabled=true phases=3
New "Line.s_mdv201_hn_2_089_abc8163-1c2" bus1=x_8163.3 bus2=x_8163_3.3 linecode=defaultsecondary Seasons=1 Ratings=[400,] normamps=400 emergamps=600 phases=1 length=100 units=ft
New "Line.s_mdv201_hn_2_089_abc8163-1c1" bus1=x_8163.3 bus2=x_8163_2.3 linecode=defaultsecondary Seasons=1 Ratings=[400,] normamps=400 emergamps=600 phases=1 length=100 units=ft
New "Line.s_mdv201_hn_2_089_abc8163-1c0" bus1=x_8163.3 bus2=x_8163_1.3 linecode=defaultsecondary Seasons=1 Ratings=[400,] normamps=400 emergamps=600 phases=1 length=100 units=ft
New "Line.mdv201_hn_2_088_abc8164" bus1=8163 bus2=8164 length=0.0841248 geometry=3ph_horiz_lg_1c-al_4/0_7stral_4/0_7stral_4/0_7stracsr_1/0_6/1 Seasons=1 Ratings=[0,] normamps=338 emergamps=406 units=km enabled=true phases=3
New "Line.s_mdv201_hn_2_088_abc8164-1c3" bus1=x_8164.3 bus2=x_8164_4.3 linecode=defaultsecondary Seasons=1 Ratings=[400,] normamps=400 emergamps=600 phases=1 length=100 units=ft
New "Line.s_mdv201_hn_2_088_abc8164-1c2" bus1=x_8164.3 bus2=x_8164_3.3 linecode=defaultsecondary Seasons=1 Ratings=[400,] normamps=400 emergamps=600 phases=1 length=100 units=ft
New "Line.s_mdv201_hn_2_088_abc8164-1c1" bus1=x_8164.3 bus2=x_8164_2.3 linecode=defaultsecondary Seasons=1 Ratings=[400,] normamps=400 emergamps=600 phases=1 length=100 units=ft
New "Line.s_mdv201_hn_2_088_abc8164-1c0" bus1=x_8164.3 bus2=x_8164_1.3 linecode=defaultsecondary Seasons=1 Ratings=[400,] normamps=400 emergamps=600 phases=1 length=100 units=ft
New "Line.mdv201_hn_2_360_abc8165" bus1=8164 bus2=8165 length=0.0249936 geometry=3ph_horiz_lg_1c-al_4/0_7stral_4/0_7stral_4/0_7stracsr_1/0_6/1 Seasons=1 Ratings=[0,] normamps=338 emergamps=406 units=km enabled=true phases=3
New "Line.s_mdv201_hn_2_360_abc8165-1c1" bus1=x_8165.3 bus2=x_8165_2.3 linecode=defaultsecondary Seasons=1 Ratings=[400,] normamps=400 emergamps=600 phases=1 length=100 units=ft
New "Line.s_mdv201_hn_2_360_abc8165-1c0" bus1=x_8165.3 bus2=x_8165_1.3 linecode=defaultsecondary Seasons=1 Ratings=[400,] normamps=400 emergamps=600 phases=1 length=100 units=ft
New "Line.mdv201_hn_2_086_abc8167" bus1=8165 bus2=8167 length=0.0630936 geometry=3ph_horiz_lg_1c-al_4/0_7stral_4/0_7stral_4/0_7stracsr_1/0_6/1 Seasons=1 Ratings=[0,] normamps=338 emergamps=406 units=km enabled=true phases=3
New "Line.s_mdv201_hn_2_086_abc8167-1b4" bus1=x_8167.2 bus2=x_8167_5.2 linecode=defaultsecondary Seasons=1 Ratings=[400,] normamps=400 emergamps=600 phases=1 length=100 units=ft
New "Line.s_mdv201_hn_2_086_abc8167-1b3" bus1=x_8167.2 bus2=x_8167_4.2 linecode=defaultsecondary Seasons=1 Ratings=[400,] normamps=400 emergamps=600 phases=1 length=100 units=ft
New "Line.s_mdv201_hn_2_086_abc8167-1b2" bus1=x_8167.2 bus2=x_8167_3.2 linecode=defaultsecondary Seasons=1 Ratings=[400,] normamps=400 emergamps=600 phases=1 length=100 units=ft
New "Line.s_mdv201_hn_2_086_abc8167-1b1" bus1=x_8167.2 bus2=x_8167_2.2 linecode=defaultsecondary Seasons=1 Ratings=[400,] normamps=400 emergamps=600 phases=1 length=100 units=ft
New "Line.s_mdv201_hn_2_086_abc8167-1b0" bus1=x_8167.2 bus2=x_8167_1.2 linecode=defaultsecondary Seasons=1 Ratings=[400,] normamps=400 emergamps=600 phases=1 length=100 units=ft
New "Line.mdv201_hn_2_578_abc44585" bus1=8167 bus2=44585 length=0.0332232 geometry=3ph_horiz_lg_1c-al_4/0_7stral_4/0_7stral_4/0_7stracsr_1/0_6/1 Seasons=1 Ratings=[0,] normamps=338 emergamps=406 units=km enabled=true phases=3
New "Line.mdv201_hn_2_085_abc38388" bus1=44585 bus2=38388 length=0.0341376 geometry=3ph_horiz_lg_1c-al_4/0_7stral_4/0_7stral_4/0_7stracsr_1/0_6/1 Seasons=1 Ratings=[0,] normamps=338 emergamps=406 units=km enabled=true phases=3
New "Line.s_mdv201_hn_2_085_abc38388-1b2" bus1=x_38388.2 bus2=x_38388_3.2 linecode=defaultsecondary Seasons=1 Ratings=[400,] normamps=400 emergamps=600 phases=1 length=100 units=ft
New "Line.s_mdv201_hn_2_085_abc38388-1b1" bus1=x_38388.2 bus2=x_38388_2.2 linecode=defaultsecondary Seasons=1 Ratings=[400,] normamps=400 emergamps=600 phases=1 length=100 units=ft
New "Line.s_mdv201_hn_2_085_abc38388-1b0" bus1=x_38388.2 bus2=x_38388_1.2 linecode=defaultsecondary Seasons=1 Ratings=[400,] normamps=400 emergamps=600 phases=1 length=100 units=ft
New "Line.mdv201_hn_2_312_abc44586" bus1=38388 bus2=44586 length=0.0603504 geometry=3ph_horiz_lg_1c-al_4/0_7stral_4/0_7stral_4/0_7stracsr_1/0_6/1 Seasons=1 Ratings=[0,] normamps=338 emergamps=406 units=km enabled=true phases=3
New "Line.s_mdv201_hn_2_312_abc44586-1b0" bus1=x_44586.2 bus2=x_44586_1.2 linecode=defaultsecondary Seasons=1 Ratings=[400,] normamps=400 emergamps=600 phases=1 length=100 units=ft
New "Line.mdv201_hn_2_657_c62231" bus1=44586.3 bus2=62231.3 length=0.0179832 geometry=1ph-nonenoneal_1/0_7stracsr_1/0_6/1 Seasons=1 Ratings=[0,] normamps=218 emergamps=262 units=km enabled=true phases=1
New "Line.mdv201_106883fuse" bus1=62231.3 bus2=106883.3 length=0.001524 geometry=1ph-nonenonebusbarbusbar Seasons=1 Ratings=[0,] normamps=2000 emergamps=2400 units=km enabled=true phases=1
New "Line.mdv201_hn_2_658_c62236" bus1=106883.3 bus2=62236.3 length=0.0573024 geometry=1ph-nonenoneal_1/0_7stracsr_1/0_6/1 Seasons=1 Ratings=[0,] normamps=218 emergamps=262 units=km enabled=true phases=1
New "Line.s_mdv201_hn_2_658_c62236-1c2" bus1=x_62236.3 bus2=x_62236_3.3 linecode=defaultsecondary Seasons=1 Ratings=[400,] normamps=400 emergamps=600 phases=1 length=100 units=ft
New "Line.s_mdv201_hn_2_658_c62236-1c1" bus1=x_62236.3 bus2=x_62236_2.3 linecode=defaultsecondary Seasons=1 Ratings=[400,] normamps=400 emergamps=600 phases=1 length=100 units=ft
New "Line.s_mdv201_hn_2_658_c62236-1c0" bus1=x_62236.3 bus2=x_62236_1.3 linecode=defaultsecondary Seasons=1 Ratings=[400,] normamps=400 emergamps=600 phases=1 length=100 units=ft
New "Line.mdv201_hn_2_659_c62237" bus1=62236.3 bus2=62237.3 length=0.0591312 geometry=1ph-nonenoneal_1/0_7stracsr_1/0_6/1 Seasons=1 Ratings=[0,] normamps=218 emergamps=262 units=km enabled=true phases=1
New "Line.mdv201_hn_2_660_c62246" bus1=62237.3 bus2=62246.3 length=0.0432816 geometry=1ph-nonenoneal_1/0_7stracsr_1/0_6/1 Seasons=1 Ratings=[0,] normamps=218 emergamps=262 units=km enabled=true phases=1
New "Line.s_mdv201_hn_2_660_c62246-1c1" bus1=x_62246.3 bus2=x_62246_2.3 linecode=defaultsecondary Seasons=1 Ratings=[400,] normamps=400 emergamps=600 phases=1 length=100 units=ft
New "Line.s_mdv201_hn_2_660_c62246-1c0" bus1=x_62246.3 bus2=x_62246_1.3 linecode=defaultsecondary Seasons=1 Ratings=[400,] normamps=400 emergamps=600 phases=1 length=100 units=ft
New "Line.mdv201_hn_2_661_c62248" bus1=62246.3 bus2=62248.3 length=0.0478536 geometry=1ph-nonenoneal_1/0_7stracsr_1/0_6/1 Seasons=1 Ratings=[0,] normamps=218 emergamps=262 units=km enabled=true phases=1
New "Line.s_mdv201_hn_2_661_c62248-1c1" bus1=x_62248.3 bus2=x_62248_2.3 linecode=defaultsecondary Seasons=1 Ratings=[400,] normamps=400 emergamps=600 phases=1 length=100 units=ft
New "Line.s_mdv201_hn_2_661_c62248-1c0" bus1=x_62248.3 bus2=x_62248_1.3 linecode=defaultsecondary Seasons=1 Ratings=[400,] normamps=400 emergamps=600 phases=1 length=100 units=ft
New "Line.mdv201_hn_21095_c1148537" bus1=62237.3 bus2=1148537.3 length=0.0762 geometry=1ph-nonenoneal_1/0_7stracsr_1/0_6/1 Seasons=1 Ratings=[0,] normamps=218 emergamps=262 units=km enabled=true phases=1
New "Line.s_mdv201_hn_21095_c1148537-1c0" bus1=x_1148537.3 bus2=x_1148537_1.3 linecode=defaultsecondary Seasons=1 Ratings=[400,] normamps=400 emergamps=600 phases=1 length=100 units=ft
New "Line.mdv201_1149722fuse" bus1=1148537.3 bus2=1149722.3 length=0.001524 geometry=1ph-nonenonebusbarbusbar Seasons=1 Ratings=[0,] normamps=2000 emergamps=2400 units=km enabled=true phases=1
New "Line.mdv201_hn_2p053_c1163437" bus1=1149722.3 bus2=1163437.3 length=0.0749808 linecode=ug_1/0al Seasons=1 Ratings=[400,] normamps=150 emergamps=150 units=km enabled=true phases=1
New "Line.hn_2p053_sw" bus1=1163437.3 bus2=mdv201_1163438elb_int.3 length=0.001 Switch=True units=km enabled=true phases=1
New "Line.mdv201_1163438elb" bus1=mdv201_1163438elb_int.3 bus2=1163438.3 length=0.001524 linecode=busbar Seasons=1 Ratings=[400,] normamps=2000 emergamps=2000 units=km enabled=true phases=1
New "Line.mdv201_1163441elb-1_sw" bus1=1163438.3 bus2=mdv201_1163441elb_int.3 length=0.001 Switch=True units=km enabled=true phases=1
New "Line.mdv201_1163441elb" bus1=mdv201_1163441elb_int.3 bus2=1163441.3 length=0.001524 linecode=busbar Seasons=1 Ratings=[400,] normamps=2000 emergamps=2000 units=km enabled=true phases=1
New "Line.mdv201_hn_2p054_c1163442" bus1=1163441.3 bus2=1163442.3 length=0.0728472 linecode=ug_1/0al Seasons=1 Ratings=[400,] normamps=150 emergamps=150 units=km enabled=true phases=1
New "Line.hn_2p054_sw" bus1=1163442.3 bus2=mdv201_1163443elb_int.3 length=0.001 Switch=True units=km enabled=true phases=1
New "Line.mdv201_1163443elb" bus1=mdv201_1163443elb_int.3 bus2=1163443.3 length=0.001524 linecode=busbar Seasons=1 Ratings=[400,] normamps=2000 emergamps=2000 units=km enabled=true phases=1
New "Line.mdv201_hn_2_663_c62247" bus1=62237.3 bus2=62247.3 length=0.0414528 geometry=1ph-nonenoneal_1/0_7stracsr_1/0_6/1 Seasons=1 Ratings=[0,] normamps=218 emergamps=262 units=km enabled=true phases=1
New "Line.s_mdv201_hn_2_663_c62247-1c0" bus1=x_62247.3 bus2=x_62247_1.3 linecode=defaultsecondary Seasons=1 Ratings=[400,] normamps=400 emergamps=600 phases=1 length=100 units=ft
New "Line.mdv201_hn_2_664_c62252" bus1=62247.3 bus2=62252.3 length=0.0600456 geometry=1ph-nonenoneal_1/0_7stracsr_1/0_6/1 Seasons=1 Ratings=[0,] normamps=218 emergamps=262 units=km enabled=true phases=1
New "Line.mdv201_hn_2_665_c62311" bus1=62252.3 bus2=62311.3 length=0.0478536 geometry=1ph-nonenoneal_1/0_7stracsr_1/0_6/1 Seasons=1 Ratings=[0,] normamps=218 emergamps=262 units=km enabled=true phases=1
New "Line.s_mdv201_hn_2_665_c62311-1c3" bus1=x_62311.3 bus2=x_62311_4.3 linecode=defaultsecondary Seasons=1 Ratings=[400,] normamps=400 emergamps=600 phases=1 length=100 units=ft
New "Line.s_mdv201_hn_2_665_c62311-1c2" bus1=x_62311.3 bus2=x_62311_3.3 linecode=defaultsecondary Seasons=1 Ratings=[400,] normamps=400 emergamps=600 phases=1 length=100 units=ft
New "Line.s_mdv201_hn_2_665_c62311-1c1" bus1=x_62311.3 bus2=x_62311_2.3 linecode=defaultsecondary Seasons=1 Ratings=[400,] normamps=400 emergamps=600 phases=1 length=100 units=ft
New "Line.s_mdv201_hn_2_665_c62311-1c0" bus1=x_62311.3 bus2=x_62311_1.3 linecode=defaultsecondary Seasons=1 Ratings=[400,] normamps=400 emergamps=600 phases=1 length=100 units=ft
New "Line.mdv201_hn_2_666_c62312" bus1=62311.3 bus2=62312.3 length=0.06096 geometry=1ph-nonenoneal_1/0_7stracsr_1/0_6/1 Seasons=1 Ratings=[0,] normamps=218 emergamps=262 units=km enabled=true phases=1
New "Line.s_mdv201_hn_2_666_c62312-1c2" bus1=x_62312.3 bus2=x_62312_3.3 linecode=defaultsecondary Seasons=1 Ratings=[400,] normamps=400 emergamps=600 phases=1 length=100 units=ft
New "Line.s_mdv201_hn_2_666_c62312-1c1" bus1=x_62312.3 bus2=x_62312_2.3 linecode=defaultsecondary Seasons=1 Ratings=[400,] normamps=400 emergamps=600 phases=1 length=100 units=ft
New "Line.s_mdv201_hn_2_666_c62312-1c0" bus1=x_62312.3 bus2=x_62312_1.3 linecode=defaultsecondary Seasons=1 Ratings=[400,] normamps=400 emergamps=600 phases=1 length=100 units=ft
New "Line.mdv201_hn_2_667_c89812" bus1=62252.3 bus2=89812.3 length=0.0390144 geometry=1ph-nonenoneal_1/0_7stracsr_1/0_6/1 Seasons=1 Ratings=[0,] normamps=218 emergamps=262 units=km enabled=true phases=1
New "Line.s_mdv201_hn_2_667_c89812-1c1" bus1=x_89812.3 bus2=x_89812_2.3 linecode=defaultsecondary Seasons=1 Ratings=[400,] normamps=400 emergamps=600 phases=1 length=100 units=ft
New "Line.s_mdv201_hn_2_667_c89812-1c0" bus1=x_89812.3 bus2=x_89812_1.3 linecode=defaultsecondary Seasons=1 Ratings=[400,] normamps=400 emergamps=600 phases=1 length=100 units=ft
New "Line.mdv201_hn_2_668_c44578" bus1=89812.3 bus2=44578.3 length=0.0524256 geometry=1ph-nonenoneal_1/0_7stracsr_1/0_6/1 Seasons=1 Ratings=[0,] normamps=218 emergamps=262 units=km enabled=true phases=1
New "Line.mdv201_hn_2_911_c44579" bus1=44578.3 bus2=44579.3 length=0.077724 geometry=1ph-nonenoneal_#2_7stracsr_1/0_6/1 Seasons=1 Ratings=[0,] normamps=163 emergamps=196 units=km enabled=true phases=1
New "Line.s_mdv201_hn_2_911_c44579-1c0" bus1=x_44579.3 bus2=x_44579_1.3 linecode=defaultsecondary Seasons=1 Ratings=[400,] normamps=400 emergamps=600 phases=1 length=100 units=ft
New "Line.mdv201_hn_2_669_c89789" bus1=62252.3 bus2=89789.3 length=0.0381 geometry=1ph-nonenoneal_1/0_7stracsr_1/0_6/1 Seasons=1 Ratings=[0,] normamps=218 emergamps=262 units=km enabled=true phases=1
New "Line.s_mdv201_hn_2_669_c89789-1c0" bus1=x_89789.3 bus2=x_89789_1.3 linecode=defaultsecondary Seasons=1 Ratings=[400,] normamps=400 emergamps=600 phases=1 length=100 units=ft
New "Line.mdv201_hn_2_670_c89784" bus1=89789.3 bus2=89784.3 length=0.0451104 geometry=1ph-nonenoneal_1/0_7stracsr_1/0_6/1 Seasons=1 Ratings=[0,] normamps=218 emergamps=262 units=km enabled=true phases=1
New "Line.s_mdv201_hn_2_670_c89784-1c1" bus1=x_89784.3 bus2=x_89784_2.3 linecode=defaultsecondary Seasons=1 Ratings=[400,] normamps=400 emergamps=600 phases=1 length=100 units=ft
New "Line.s_mdv201_hn_2_670_c89784-1c0" bus1=x_89784.3 bus2=x_89784_1.3 linecode=defaultsecondary Seasons=1 Ratings=[400,] normamps=400 emergamps=600 phases=1 length=100 units=ft
New "Line.mdv201_hn_2_671_c89781" bus1=89784.3 bus2=89781.3 length=0.0527304 geometry=1ph-nonenoneal_1/0_7stracsr_1/0_6/1 Seasons=1 Ratings=[0,] normamps=218 emergamps=262 units=km enabled=true phases=1
New "Line.s_mdv201_hn_2_671_c89781-1c1" bus1=x_89781.3 bus2=x_89781_2.3 linecode=defaultsecondary Seasons=1 Ratings=[400,] normamps=400 emergamps=600 phases=1 length=100 units=ft
New "Line.s_mdv201_hn_2_671_c89781-1c0" bus1=x_89781.3 bus2=x_89781_1.3 linecode=defaultsecondary Seasons=1 Ratings=[400,] normamps=400 emergamps=600 phases=1 length=100 units=ft
New "Line.mdv201_hn_2_674_c62310" bus1=89781.3 bus2=62310.3 length=0.0722376 geometry=1ph-nonenoneal_1/0_7stracsr_1/0_6/1 Seasons=1 Ratings=[0,] normamps=218 emergamps=262 units=km enabled=true phases=1
New "Line.s_mdv201_hn_2_674_c62310-1c2" bus1=x_62310.3 bus2=x_62310_3.3 linecode=defaultsecondary Seasons=1 Ratings=[400,] normamps=400 emergamps=600 phases=1 length=100 units=ft
New "Line.s_mdv201_hn_2_674_c62310-1c1" bus1=x_62310.3 bus2=x_62310_2.3 linecode=defaultsecondary Seasons=1 Ratings=[400,] normamps=400 emergamps=600 phases=1 length=100 units=ft
New "Line.s_mdv201_hn_2_674_c62310-1c0" bus1=x_62310.3 bus2=x_62310_1.3 linecode=defaultsecondary Seasons=1 Ratings=[400,] normamps=400 emergamps=600 phases=1 length=100 units=ft
New "Line.mdv201_hn_2_676_c62306" bus1=62310.3 bus2=62306.3 length=0.0755904 geometry=1ph-nonenoneal_1/0_7stracsr_1/0_6/1 Seasons=1 Ratings=[0,] normamps=218 emergamps=262 units=km enabled=true phases=1
New "Line.s_mdv201_hn_2_676_c62306-1c3" bus1=x_62306.3 bus2=x_62306_4.3 linecode=defaultsecondary Seasons=1 Ratings=[400,] normamps=400 emergamps=600 phases=1 length=100 units=ft
New "Line.s_mdv201_hn_2_676_c62306-1c2" bus1=x_62306.3 bus2=x_62306_3.3 linecode=defaultsecondary Seasons=1 Ratings=[400,] normamps=400 emergamps=600 phases=1 length=100 units=ft
New "Line.s_mdv201_hn_2_676_c62306-1c1" bus1=x_62306.3 bus2=x_62306_2.3 linecode=defaultsecondary Seasons=1 Ratings=[400,] normamps=400 emergamps=600 phases=1 length=100 units=ft
New "Line.s_mdv201_hn_2_676_c62306-1c0" bus1=x_62306.3 bus2=x_62306_1.3 linecode=defaultsecondary Seasons=1 Ratings=[400,] normamps=400 emergamps=600 phases=1 length=100 units=ft
New "Line.mdv201_hn_2_677_c62303" bus1=62306.3 bus2=62303.3 length=0.0597408 geometry=1ph-nonenoneal_1/0_7stracsr_1/0_6/1 Seasons=1 Ratings=[0,] normamps=218 emergamps=262 units=km enabled=true phases=1
New "Line.s_mdv201_hn_2_677_c62303-1c2" bus1=x_62303.3 bus2=x_62303_3.3 linecode=defaultsecondary Seasons=1 Ratings=[400,] normamps=400 emergamps=600 phases=1 length=100 units=ft
New "Line.s_mdv201_hn_2_677_c62303-1c1" bus1=x_62303.3 bus2=x_62303_2.3 linecode=defaultsecondary Seasons=1 Ratings=[400,] normamps=400 emergamps=600 phases=1 length=100 units=ft
New "Line.s_mdv201_hn_2_677_c62303-1c0" bus1=x_62303.3 bus2=x_62303_1.3 linecode=defaultsecondary Seasons=1 Ratings=[400,] normamps=400 emergamps=600 phases=1 length=100 units=ft
New "Line.mdv201_hn_2_678_c62304" bus1=62303.3 bus2=62304.3 length=0.0600456 geometry=1ph-nonenoneal_1/0_7stracsr_1/0_6/1 Seasons=1 Ratings=[0,] normamps=218 emergamps=262 units=km enabled=true phases=1
New "Line.s_mdv201_hn_2_678_c62304-1c2" bus1=x_62304.3 bus2=x_62304_3.3 linecode=defaultsecondary Seasons=1 Ratings=[400,] normamps=400 emergamps=600 phases=1 length=100 units=ft
New "Line.s_mdv201_hn_2_678_c62304-1c1" bus1=x_62304.3 bus2=x_62304_2.3 linecode=defaultsecondary Seasons=1 Ratings=[400,] normamps=400 emergamps=600 phases=1 length=100 units=ft
New "Line.s_mdv201_hn_2_678_c62304-1c0" bus1=x_62304.3 bus2=x_62304_1.3 linecode=defaultsecondary Seasons=1 Ratings=[400,] normamps=400 emergamps=600 phases=1 length=100 units=ft
New "Line.mdv201_hn_2_675_c89783" bus1=62310.3 bus2=89783.3 length=0.0542544 geometry=1ph-nonenoneal_1/0_7stracsr_1/0_6/1 Seasons=1 Ratings=[0,] normamps=218 emergamps=262 units=km enabled=true phases=1
New "Line.s_mdv201_hn_2_675_c89783-1c2" bus1=x_89783.3 bus2=x_89783_3.3 linecode=defaultsecondary Seasons=1 Ratings=[400,] normamps=400 emergamps=600 phases=1 length=100 units=ft
New "Line.s_mdv201_hn_2_675_c89783-1c1" bus1=x_89783.3 bus2=x_89783_2.3 linecode=defaultsecondary Seasons=1 Ratings=[400,] normamps=400 emergamps=600 phases=1 length=100 units=ft
New "Line.s_mdv201_hn_2_675_c89783-1c0" bus1=x_89783.3 bus2=x_89783_1.3 linecode=defaultsecondary Seasons=1 Ratings=[400,] normamps=400 emergamps=600 phases=1 length=100 units=ft
New "Line.mdv201_hn_2_942_c89791" bus1=89783.3 bus2=89791.3 length=0.0521208 geometry=1ph-nonenoneal_#2_7stracsr_1/0_6/1 Seasons=1 Ratings=[0,] normamps=163 emergamps=196 units=km enabled=true phases=1
New "Line.s_mdv201_hn_2_942_c89791-1c2" bus1=x_89791.3 bus2=x_89791_3.3 linecode=defaultsecondary Seasons=1 Ratings=[400,] normamps=400 emergamps=600 phases=1 length=100 units=ft
New "Line.s_mdv201_hn_2_942_c89791-1c1" bus1=x_89791.3 bus2=x_89791_2.3 linecode=defaultsecondary Seasons=1 Ratings=[400,] normamps=400 emergamps=600 phases=1 length=100 units=ft
New "Line.s_mdv201_hn_2_942_c89791-1c0" bus1=x_89791.3 bus2=x_89791_1.3 linecode=defaultsecondary Seasons=1 Ratings=[400,] normamps=400 emergamps=600 phases=1 length=100 units=ft
New "Line.mdv201_hn_2_943_c89813" bus1=89791.3 bus2=89813.3 length=0.0256032 geometry=1ph-nonenoneal_#2_7stracsr_1/0_6/1 Seasons=1 Ratings=[0,] normamps=163 emergamps=196 units=km enabled=true phases=1
New "Line.mdv201_hn_2_944_c44577" bus1=89813.3 bus2=44577.3 length=0.0475488 geometry=1ph-nonenoneal_#2_7stracsr_1/0_6/1 Seasons=1 Ratings=[0,] normamps=163 emergamps=196 units=km enabled=true phases=1
New "Line.s_mdv201_hn_2_944_c44577-1c1" bus1=x_44577.3 bus2=x_44577_2.3 linecode=defaultsecondary Seasons=1 Ratings=[400,] normamps=400 emergamps=600 phases=1 length=100 units=ft
New "Line.s_mdv201_hn_2_944_c44577-1c0" bus1=x_44577.3 bus2=x_44577_1.3 linecode=defaultsecondary Seasons=1 Ratings=[400,] normamps=400 emergamps=600 phases=1 length=100 units=ft
New "Line.mdv201_hn_2_946_c8179" bus1=44577.3 bus2=8179.3 length=0.0566928 geometry=1ph-nonenoneal_1/0_7stracsr_1/0_6/1 Seasons=1 Ratings=[0,] normamps=218 emergamps=262 units=km enabled=true phases=1
New "Line.s_mdv201_hn_2_946_c8179-1c1" bus1=x_8179.3 bus2=x_8179_2.3 linecode=defaultsecondary Seasons=1 Ratings=[400,] normamps=400 emergamps=600 phases=1 length=100 units=ft
New "Line.s_mdv201_hn_2_946_c8179-1c0" bus1=x_8179.3 bus2=x_8179_1.3 linecode=defaultsecondary Seasons=1 Ratings=[400,] normamps=400 emergamps=600 phases=1 length=100 units=ft
New "Line.mdv201_hn_2_947_c8175" bus1=8179.3 bus2=8175.3 length=0.0557784 geometry=1ph-nonenoneal_1/0_7stracsr_1/0_6/1 Seasons=1 Ratings=[0,] normamps=218 emergamps=262 units=km enabled=true phases=1
New "Line.s_mdv201_hn_2_947_c8175-1c0" bus1=x_8175.3 bus2=x_8175_1.3 linecode=defaultsecondary Seasons=1 Ratings=[400,] normamps=400 emergamps=600 phases=1 length=100 units=ft
New "Line.mdv201_hn_2_948_c8176" bus1=8175.3 bus2=8176.3 length=0.0466344 geometry=1ph-nonenoneal_1/0_7stracsr_1/0_6/1 Seasons=1 Ratings=[0,] normamps=218 emergamps=262 units=km enabled=true phases=1
New "Line.mdv201_hn_2_949_c8180" bus1=8176.3 bus2=8180.3 length=0.0210312 geometry=1ph-nonenoneal_1/0_7stracsr_1/0_6/1 Seasons=1 Ratings=[0,] normamps=218 emergamps=262 units=km enabled=true phases=1
New "Line.s_mdv201_hn_2_949_c8180-1c2" bus1=x_8180.3 bus2=x_8180_3.3 linecode=defaultsecondary Seasons=1 Ratings=[400,] normamps=400 emergamps=600 phases=1 length=100 units=ft
New "Line.s_mdv201_hn_2_949_c8180-1c1" bus1=x_8180.3 bus2=x_8180_2.3 linecode=defaultsecondary Seasons=1 Ratings=[400,] normamps=400 emergamps=600 phases=1 length=100 units=ft
New "Line.s_mdv201_hn_2_949_c8180-1c0" bus1=x_8180.3 bus2=x_8180_1.3 linecode=defaultsecondary Seasons=1 Ratings=[400,] normamps=400 emergamps=600 phases=1 length=100 units=ft
New "Line.mdv201_hn_2_950_c8190" bus1=44577.3 bus2=8190.3 length=0.0448056 geometry=1ph-nonenoneal_1/0_7stracsr_1/0_6/1 Seasons=1 Ratings=[0,] normamps=218 emergamps=262 units=km enabled=true phases=1
New "Line.s_mdv201_hn_2_950_c8190-1c2" bus1=x_8190.3 bus2=x_8190_3.3 linecode=defaultsecondary Seasons=1 Ratings=[400,] normamps=400 emergamps=600 phases=1 length=100 units=ft
New "Line.s_mdv201_hn_2_950_c8190-1c1" bus1=x_8190.3 bus2=x_8190_2.3 linecode=defaultsecondary Seasons=1 Ratings=[400,] normamps=400 emergamps=600 phases=1 length=100 units=ft
New "Line.s_mdv201_hn_2_950_c8190-1c0" bus1=x_8190.3 bus2=x_8190_1.3 linecode=defaultsecondary Seasons=1 Ratings=[400,] normamps=400 emergamps=600 phases=1 length=100 units=ft
New "Line.mdv201_hn_2_951_c8188" bus1=8190.3 bus2=8188.3 length=0.0316992 geometry=1ph-nonenoneal_1/0_7stracsr_1/0_6/1 Seasons=1 Ratings=[0,] normamps=218 emergamps=262 units=km enabled=true phases=1
New "Line.mdv201_hn_2_952_c8189" bus1=8188.3 bus2=8189.3 length=0.0323088 geometry=1ph-nonenoneal_1/0_7stracsr_1/0_6/1 Seasons=1 Ratings=[0,] normamps=218 emergamps=262 units=km enabled=true phases=1
New "Line.s_mdv201_hn_2_952_c8189-1c2" bus1=x_8189.3 bus2=x_8189_3.3 linecode=defaultsecondary Seasons=1 Ratings=[400,] normamps=400 emergamps=600 phases=1 length=100 units=ft
New "Line.s_mdv201_hn_2_952_c8189-1c1" bus1=x_8189.3 bus2=x_8189_2.3 linecode=defaultsecondary Seasons=1 Ratings=[400,] normamps=400 emergamps=600 phases=1 length=100 units=ft
New "Line.s_mdv201_hn_2_952_c8189-1c0" bus1=x_8189.3 bus2=x_8189_1.3 linecode=defaultsecondary Seasons=1 Ratings=[400,] normamps=400 emergamps=600 phases=1 length=100 units=ft
New "Line.mdv201_hn_2_672_c62308" bus1=89781.3 bus2=62308.3 length=0.0509016 geometry=1ph-nonenoneal_1/0_7stracsr_1/0_6/1 Seasons=1 Ratings=[0,] normamps=218 emergamps=262 units=km enabled=true phases=1
New "Line.s_mdv201_hn_2_672_c62308-1c4" bus1=x_62308.3 bus2=x_62308_5.3 linecode=defaultsecondary Seasons=1 Ratings=[400,] normamps=400 emergamps=600 phases=1 length=100 units=ft
New "Line.s_mdv201_hn_2_672_c62308-1c3" bus1=x_62308.3 bus2=x_62308_4.3 linecode=defaultsecondary Seasons=1 Ratings=[400,] normamps=400 emergamps=600 phases=1 length=100 units=ft
New "Line.s_mdv201_hn_2_672_c62308-1c2" bus1=x_62308.3 bus2=x_62308_3.3 linecode=defaultsecondary Seasons=1 Ratings=[400,] normamps=400 emergamps=600 phases=1 length=100 units=ft
New "Line.s_mdv201_hn_2_672_c62308-1c1" bus1=x_62308.3 bus2=x_62308_2.3 linecode=defaultsecondary Seasons=1 Ratings=[400,] normamps=400 emergamps=600 phases=1 length=100 units=ft
New "Line.s_mdv201_hn_2_672_c62308-1c0" bus1=x_62308.3 bus2=x_62308_1.3 linecode=defaultsecondary Seasons=1 Ratings=[400,] normamps=400 emergamps=600 phases=1 length=100 units=ft
New "Line.mdv201_hn_2_673_c62309" bus1=62308.3 bus2=62309.3 length=0.0597408 geometry=1ph-nonenoneal_1/0_7stracsr_1/0_6/1 Seasons=1 Ratings=[0,] normamps=218 emergamps=262 units=km enabled=true phases=1
New "Line.s_mdv201_hn_2_673_c62309-1c0" bus1=x_62309.3 bus2=x_62309_1.3 linecode=defaultsecondary Seasons=1 Ratings=[400,] normamps=400 emergamps=600 phases=1 length=100 units=ft
New "Line.mdv201_hn_2_083_abc62239" bus1=44586 bus2=62239 length=0.0313944 geometry=3ph_horiz_lg_1c-al_4/0_7stral_4/0_7stral_4/0_7stracsr_1/0_6/1 Seasons=1 Ratings=[0,] normamps=338 emergamps=406 units=km enabled=true phases=3
New "Line.mdv201_hn_2_456_abc62242" bus1=62239 bus2=62242 length=0.06096 geometry=3ph_horiz_lg_1c-al_4/0_7stral_4/0_7stral_4/0_7stracsr_1/0_6/1 Seasons=1 Ratings=[0,] normamps=338 emergamps=406 units=km enabled=true phases=3
New "Line.mdv201_106885fuse" bus1=62242.2 bus2=106885.2 length=0.001524 geometry=1ph-nonebusbarnonebusbar Seasons=1 Ratings=[0,] normamps=2000 emergamps=2400 units=km enabled=true phases=1
New "Line.mdv201_hn_2p017_b1160488" bus1=106885.2 bus2=1160488.2 length=0.0893064 linecode=ug_1/0al Seasons=1 Ratings=[400,] normamps=150 emergamps=150 units=km enabled=true phases=1
New "Line.hn_2p017_sw" bus1=1160488.2 bus2=mdv201_62249elb_int.2 length=0.001 Switch=True units=km enabled=true phases=1
New "Line.mdv201_62249elb" bus1=mdv201_62249elb_int.2 bus2=62249.2 length=0.001524 linecode=busbar Seasons=1 Ratings=[400,] normamps=2000 emergamps=2000 units=km enabled=true phases=1
New "Line.s_mdv201_62249elb-1b0" bus1=x_62249.2 bus2=x_62249_1.2 linecode=defaultsecondary Seasons=1 Ratings=[400,] normamps=400 emergamps=600 phases=1 length=100 units=ft
New "Line.mdv201_hn_2_082_abc62250" bus1=62242 bus2=62250 length=0.0734568 geometry=3ph_horiz_lg_1c-al_4/0_7stral_4/0_7stral_4/0_7stracsr_1/0_6/1 Seasons=1 Ratings=[0,] normamps=338 emergamps=406 units=km enabled=true phases=3
New "Line.s_mdv201_hn_2_082_abc62250-1b3" bus1=x_62250.2 bus2=x_62250_4.2 linecode=defaultsecondary Seasons=1 Ratings=[400,] normamps=400 emergamps=600 phases=1 length=100 units=ft
New "Line.s_mdv201_hn_2_082_abc62250-1b2" bus1=x_62250.2 bus2=x_62250_3.2 linecode=defaultsecondary Seasons=1 Ratings=[400,] normamps=400 emergamps=600 phases=1 length=100 units=ft
New "Line.s_mdv201_hn_2_082_abc62250-1b1" bus1=x_62250.2 bus2=x_62250_2.2 linecode=defaultsecondary Seasons=1 Ratings=[400,] normamps=400 emergamps=600 phases=1 length=100 units=ft
New "Line.s_mdv201_hn_2_082_abc62250-1b0" bus1=x_62250.2 bus2=x_62250_1.2 linecode=defaultsecondary Seasons=1 Ratings=[400,] normamps=400 emergamps=600 phases=1 length=100 units=ft
New "Line.mdv201_hn_2_031_abc62264" bus1=62250 bus2=62264 length=0.0512064 geometry=3ph_horiz_lg_1c-al_4/0_7stral_4/0_7stral_4/0_7stracsr_1/0_6/1 Seasons=1 Ratings=[0,] normamps=338 emergamps=406 units=km enabled=true phases=3
New "Line.s_mdv201_hn_2_031_abc62264-1b1" bus1=x_62264.2 bus2=x_62264_2.2 linecode=defaultsecondary Seasons=1 Ratings=[400,] normamps=400 emergamps=600 phases=1 length=100 units=ft
New "Line.s_mdv201_hn_2_031_abc62264-1b0" bus1=x_62264.2 bus2=x_62264_1.2 linecode=defaultsecondary Seasons=1 Ratings=[400,] normamps=400 emergamps=600 phases=1 length=100 units=ft
New "Line.mdv201_hn_2_030_abc62265" bus1=62264 bus2=62265 length=0.054864 geometry=3ph_horiz_lg_1c-al_4/0_7stral_4/0_7stral_4/0_7stracsr_1/0_6/1 Seasons=1 Ratings=[0,] normamps=338 emergamps=406 units=km enabled=true phases=3
New "Line.s_mdv201_hn_2_030_abc62265-1b1" bus1=x_62265.2 bus2=x_62265_2.2 linecode=defaultsecondary Seasons=1 Ratings=[400,] normamps=400 emergamps=600 phases=1 length=100 units=ft
New "Line.s_mdv201_hn_2_030_abc62265-1b0" bus1=x_62265.2 bus2=x_62265_1.2 linecode=defaultsecondary Seasons=1 Ratings=[400,] normamps=400 emergamps=600 phases=1 length=100 units=ft
New "Line.mdv201_hn_2_029_abc62262" bus1=62265 bus2=62262 length=0.06096 geometry=3ph_horiz_lg_1c-al_4/0_7stral_4/0_7stral_4/0_7stracsr_1/0_6/1 Seasons=1 Ratings=[0,] normamps=338 emergamps=406 units=km enabled=true phases=3
New "Line.s_mdv201_hn_2_029_abc62262-1b0" bus1=x_62262.2 bus2=x_62262_1.2 linecode=defaultsecondary Seasons=1 Ratings=[400,] normamps=400 emergamps=600 phases=1 length=100 units=ft
New "Line.sw-hn_2_029_sw" bus1=62262 bus2=mdv201_1144239usd_int length=0.001 Switch=True units=km enabled=true phases=3
New "Line.mdv201_1144239usd" bus1=mdv201_1144239usd_int bus2=1144239 length=0.001524 geometry=3ph_horiz_lg_1c-busbarbusbarbusbarbusbar Seasons=1 Ratings=[0,] normamps=2000 emergamps=2400 units=km enabled=true phases=3
New "Line.mdv201_39763_abc39763" bus1=1144239 bus2=39763 length=0.06096 geometry=3ph_horiz_lg_1c-al_4/0_7stral_4/0_7stral_4/0_7stracsr_1/0_6/1 Seasons=1 Ratings=[0,] normamps=338 emergamps=406 units=km enabled=true phases=3
New "Line.mdv201_hn_2_359_abc93587" bus1=39763 bus2=93587 length=0.0301752 geometry=3ph_horiz_lg_1c-al_4/0_7stral_4/0_7stral_4/0_7stracsr_1/0_6/1 Seasons=1 Ratings=[0,] normamps=338 emergamps=406 units=km enabled=true phases=3
New "Line.s_mdv201_hn_2_359_abc93587-1c0" bus1=x_93587.3 bus2=x_93587_1.3 linecode=defaultsecondary Seasons=1 Ratings=[400,] normamps=400 emergamps=600 phases=1 length=100 units=ft
New "Line.mdv201_hn_2_183_abc62261" bus1=93587 bus2=62261 length=0.0536448 geometry=3ph_horiz_lg_1c-al_1/0_7stral_1/0_7stral_1/0_7stracsr_1/0_6/1 Seasons=1 Ratings=[0,] normamps=218 emergamps=262 units=km enabled=true phases=3
New "Line.s_mdv201_hn_2_183_abc62261-1a1" bus1=x_62261.1 bus2=x_62261_2.1 linecode=defaultsecondary Seasons=1 Ratings=[400,] normamps=400 emergamps=600 phases=1 length=100 units=ft
New "Line.s_mdv201_hn_2_183_abc62261-1a0" bus1=x_62261.1 bus2=x_62261_1.1 linecode=defaultsecondary Seasons=1 Ratings=[400,] normamps=400 emergamps=600 phases=1 length=100 units=ft
New "Line.mdv201_hn_2_358_abc1010730" bus1=62261 bus2=1010730 length=0.0710184 geometry=3ph_horiz_lg_1c-al_1/0_7stral_1/0_7stral_1/0_7stracsr_1/0_6/1 Seasons=1 Ratings=[0,] normamps=218 emergamps=262 units=km enabled=true phases=3
...
