trunk/Version8/Distrib/Examples/ADiakoptics/EPRI_Ckt5-G/Torn_Circuit/zone_2/Transformers.dss
New "Transformer.mdv201_hn_2_094_abc51012-1b" phases=1 buses=[51012.2, x_51012.2, ] conns=[wye, wye, ] kVs=[7.199558, 0.24, ] kVAs=[25, 25, ] taps=[1, 1, ] buses=[51012.2, x_51012.2, ] conns=[wye, wye, ] kVs=[7.199558, 0.24, ] kVAs=[25, 25, ] taps=[1, 1, ] wdg=1 %R=0.75 RdcOhms=13.21758 wdg=2 %R=0.75 RdcOhms=0.014688 RdcOhms=0.014688 %imag=0.5 %loadloss=1.5 %noloadloss=0.25 XHL=2
New "Transformer.mdv201_hn_2_093_abc63714-1b" phases=1 buses=[63714.2, x_63714.2, ] conns=[wye, wye, ] kVs=[7.199558, 0.24, ] kVAs=[15, 15, ] taps=[1, 1, ] buses=[63714.2, x_63714.2, ] conns=[wye, wye, ] kVs=[7.199558, 0.24, ] kVAs=[15, 15, ] taps=[1, 1, ] wdg=1 %R=0.825 RdcOhms=24.23222 wdg=2 %R=0.825 RdcOhms=0.026928 RdcOhms=0.026928 %imag=0.5 %loadloss=1.65 %noloadloss=0.25 XHL=2
New "Transformer.mdv201_hn_2_092_abc63711-1b" phases=1 buses=[63711.2, x_63711.2, ] conns=[wye, wye, ] kVs=[7.199558, 0.24, ] kVAs=[25, 25, ] taps=[1, 1, ] buses=[63711.2, x_63711.2, ] conns=[wye, wye, ] kVs=[7.199558, 0.24, ] kVAs=[25, 25, ] taps=[1, 1, ] wdg=1 %R=0.75 RdcOhms=13.21758 wdg=2 %R=0.75 RdcOhms=0.014688 RdcOhms=0.014688 %imag=0.5 %loadloss=1.5 %noloadloss=0.25 XHL=2
New "Transformer.mdv201_hn_2_247_abc44582-1b" phases=1 buses=[44582.2, x_44582.2, ] conns=[wye, wye, ] kVs=[7.199558, 0.24, ] kVAs=[37.5, 37.5, ] taps=[1, 1, ] buses=[44582.2, x_44582.2, ] conns=[wye, wye, ] kVs=[7.199558, 0.24, ] kVAs=[37.5, 37.5, ] taps=[1, 1, ] wdg=1 %R=0.7 RdcOhms=8.22427 wdg=2 %R=0.7 RdcOhms=0.0091392 RdcOhms=0.0091392 %imag=0.5 %loadloss=1.4 %noloadloss=0.25 XHL=2
New "Transformer.mdv201_hn_2_216_c44581-1c" phases=1 buses=[44581.3, x_44581.3, ] conns=[wye, wye, ] kVs=[7.199558, 0.24, ] kVAs=[25, 25, ] taps=[1, 1, ] buses=[44581.3, x_44581.3, ] conns=[wye, wye, ] kVs=[7.199558, 0.24, ] kVAs=[25, 25, ] taps=[1, 1, ] wdg=1 %R=0.75 RdcOhms=13.21758 wdg=2 %R=0.75 RdcOhms=0.014688 RdcOhms=0.014688 %imag=0.5 %loadloss=1.5 %noloadloss=0.25 XHL=2
New "Transformer.mdv201_1012644elb-1c" phases=1 buses=[1012644.3, x_1012644.3, ] conns=[wye, wye, ] kVs=[7.199558, 0.24, ] kVAs=[25, 25, ] taps=[1, 1, ] buses=[1012644.3, x_1012644.3, ] conns=[wye, wye, ] kVs=[7.199558, 0.24, ] kVAs=[25, 25, ] taps=[1, 1, ] wdg=1 %R=0.75 RdcOhms=13.21758 wdg=2 %R=0.75 RdcOhms=0.014688 RdcOhms=0.014688 %imag=0.5 %loadloss=1.5 %noloadloss=0.25 XHL=2
New "Transformer.mdv201_hn_21016_c63717-1c" phases=1 buses=[63717.3, x_63717.3, ] conns=[wye, wye, ] kVs=[7.199558, 0.24, ] kVAs=[25, 25, ] taps=[1, 1, ] buses=[63717.3, x_63717.3, ] conns=[wye, wye, ] kVs=[7.199558, 0.24, ] kVAs=[25, 25, ] taps=[1, 1, ] wdg=1 %R=0.75 RdcOhms=13.21758 wdg=2 %R=0.75 RdcOhms=0.014688 RdcOhms=0.014688 %imag=0.5 %loadloss=1.5 %noloadloss=0.25 XHL=2
New "Transformer.mdv201_hn_2_288_c63719-1c" phases=1 buses=[63719.3, x_63719.3, ] conns=[wye, wye, ] kVs=[7.199558, 0.24, ] kVAs=[37.5, 37.5, ] taps=[1, 1, ] buses=[63719.3, x_63719.3, ] conns=[wye, wye, ] kVs=[7.199558, 0.24, ] kVAs=[37.5, 37.5, ] taps=[1, 1, ] wdg=1 %R=0.7 RdcOhms=8.22427 wdg=2 %R=0.7 RdcOhms=0.0091392 RdcOhms=0.0091392 %imag=0.5 %loadloss=1.4 %noloadloss=0.25 XHL=2
New "Transformer.mdv201_hn_2_091_abc44583-1c" phases=1 buses=[44583.3, x_44583.3, ] conns=[wye, wye, ] kVs=[7.199558, 0.24, ] kVAs=[25, 25, ] taps=[1, 1, ] buses=[44583.3, x_44583.3, ] conns=[wye, wye, ] kVs=[7.199558, 0.24, ] kVAs=[25, 25, ] taps=[1, 1, ] wdg=1 %R=0.75 RdcOhms=13.21758 wdg=2 %R=0.75 RdcOhms=0.014688 RdcOhms=0.014688 %imag=0.5 %loadloss=1.5 %noloadloss=0.25 XHL=2
New "Transformer.mdv201_hn_2_248_abc44584-1c" phases=1 buses=[44584.3, x_44584.3, ] conns=[wye, wye, ] kVs=[7.199558, 0.24, ] kVAs=[37.5, 37.5, ] taps=[1, 1, ] buses=[44584.3, x_44584.3, ] conns=[wye, wye, ] kVs=[7.199558, 0.24, ] kVAs=[37.5, 37.5, ] taps=[1, 1, ] wdg=1 %R=0.7 RdcOhms=8.22427 wdg=2 %R=0.7 RdcOhms=0.0091392 RdcOhms=0.0091392 %imag=0.5 %loadloss=1.4 %noloadloss=0.25 XHL=2
New "Transformer.mdv201_hn_2_089_abc8163-1c" phases=1 buses=[8163.3, x_8163.3, ] conns=[wye, wye, ] kVs=[7.199558, 0.24, ] kVAs=[37.5, 37.5, ] taps=[1, 1, ] buses=[8163.3, x_8163.3, ] conns=[wye, wye, ] kVs=[7.199558, 0.24, ] kVAs=[37.5, 37.5, ] taps=[1, 1, ] wdg=1 %R=0.7 RdcOhms=8.22427 wdg=2 %R=0.7 RdcOhms=0.0091392 RdcOhms=0.0091392 %imag=0.5 %loadloss=1.4 %noloadloss=0.25 XHL=2
New "Transformer.mdv201_hn_2_088_abc8164-1c" phases=1 buses=[8164.3, x_8164.3, ] conns=[wye, wye, ] kVs=[7.199558, 0.24, ] kVAs=[37.5, 37.5, ] taps=[1, 1, ] buses=[8164.3, x_8164.3, ] conns=[wye, wye, ] kVs=[7.199558, 0.24, ] kVAs=[37.5, 37.5, ] taps=[1, 1, ] wdg=1 %R=0.7 RdcOhms=8.22427 wdg=2 %R=0.7 RdcOhms=0.0091392 RdcOhms=0.0091392 %imag=0.5 %loadloss=1.4 %noloadloss=0.25 XHL=2
...